iidm/iidm-serde/src/test/resources/V1_13/phaseShifterFixedTapRegulationModeRef.xml
<?xml version="1.0" encoding="UTF-8"?>
<iidm:network xmlns:iidm="http://www.powsybl.org/schema/iidm/1_13" id="phaseShifterTestCase" caseDate="2016-10-18T10:06:00.000+02:00" forecastDistance="0" sourceFormat="code" minimumValidationLevel="STEADY_STATE_HYPOTHESIS">
    <iidm:substation id="S1" country="FR">
        <iidm:voltageLevel id="VL1" nominalV="380.0" topologyKind="BUS_BREAKER">
            <iidm:busBreakerTopology>
                <iidm:bus id="B1" v="400.0" angle="0.0"/>
            </iidm:busBreakerTopology>
            <iidm:generator id="G1" energySource="OTHER" minP="50.0" maxP="150.0" voltageRegulatorOn="true" targetP="100.0" targetV="400.0" bus="B1" connectableBus="B1" p="-100.16797" q="-58.402832">
                <iidm:minMaxReactiveLimits minQ="-1.7976931348623157E308" maxQ="1.7976931348623157E308"/>
            </iidm:generator>
        </iidm:voltageLevel>
        <iidm:voltageLevel id="VL3" nominalV="380.0" topologyKind="BUS_BREAKER">
            <iidm:busBreakerTopology>
                <iidm:bus id="B3" v="392.6443" angle="-1.8060945"/>
            </iidm:busBreakerTopology>
        </iidm:voltageLevel>
        <iidm:twoWindingsTransformer id="PS1" r="2.0" x="100.0" g="0.0" b="0.0" ratedU1="380.0" ratedU2="380.0" bus1="B1" connectableBus1="B1" voltageLevelId1="VL1" bus2="B3" connectableBus2="B3" voltageLevelId2="VL3" p1="50.08403" q1="29.201416" p2="-50.042015" q2="-27.100708">
            <iidm:phaseTapChanger lowTapPosition="0" tapPosition="1" targetDeadband="10.0" regulationMode="FIXED_TAP" regulationValue="200.0" regulating="true">
                <iidm:terminalRef id="PS1" side="TWO"/>
                <iidm:step r="0.0" x="0.0" g="0.0" b="0.0" rho="1.0" alpha="-20.0"/>
                <iidm:step r="0.0" x="0.0" g="0.0" b="0.0" rho="1.0" alpha="0.0"/>
                <iidm:step r="0.0" x="0.0" g="0.0" b="0.0" rho="1.0" alpha="20.0"/>
            </iidm:phaseTapChanger>
        </iidm:twoWindingsTransformer>
    </iidm:substation>
</iidm:network>
